.subckt AND node_a node_b node_out vdd gnd
  X3 node_a node_b node_x vdd gnd NAND
  X4 node_x node_out vdd gnd NOT
.ends AND