.subckt OR node_a node_b node_out vdd gnd
  X7 node_a node_b node_x vdd gnd NOR
  X8 node_x node_out vdd gnd NOT
.ends OR